ModelUydu-STM32-Altium
*SPICE Netlist generated by Advanced Sim server on 1.02.2021 10:06:59
.options MixedSimGenerated

*Schematic Netlist:


*Selected Circuit Analyses:
.TRAN 10u 1m 0 10u

.END
