ModelUydu-STM32-Altium
*SPICE Netlist generated by Advanced Sim server on 20.01.2021 22:48:59

*Schematic Netlist:

.SAVE 0


*Selected Circuit Analyses:
.TRAN 2E-8 5E-6 0 2E-8
.OP

.END
